### 
### Created by X-TOOL on Mon Sep 10 21:13:32 2018
### 

@<TRIPOS>MOLECULE
5irr_ligand
   46    48     1     0     0
SMALL
GAST_HUCK


@<TRIPOS>ATOM
      1 PG         21.6990   28.9530   83.7150 P.3       1 GSP         0.2197
      2 O3B        23.1830   29.4330   84.1590 O.3       1 GSP        -0.1434
      3 S1G        20.7550   30.2690   83.2610 S.3       1 GSP        -0.0461
      4 O2G        21.0070   28.2910   84.9100 O.co2     1 GSP        -0.6077
      5 O3G        21.7820   27.9230   82.5780 O.co2     1 GSP        -0.6077
      6 PB         23.4330   30.3010   85.4870 P.3       1 GSP         0.3347
      7 O1B        22.9280   31.6830   85.3630 O.co2     1 GSP        -0.6076
      8 O2B        22.7740   29.6360   86.6150 O.co2     1 GSP        -0.6076
      9 PA         25.8390   29.2250   86.5810 P.3       1 GSP         0.2978
     10 O1A        25.4160   27.8450   86.3080 O.co2     1 GSP        -0.6127
     11 O2A        25.6670   29.5510   88.0120 O.co2     1 GSP        -0.6127
     12 O3A        25.0220   30.2830   85.6820 O.3       1 GSP        -0.1263
     13 O5'        27.3450   29.5070   86.1030 O.3       1 GSP        -0.2476
     14 C5'        27.7270   29.2540   84.7670 C.3       1 GSP         0.1128
     15 C4'        29.2240   29.4910   84.6100 C.3       1 GSP         0.1190
     16 O4'        29.5390   30.7920   85.0680 O.3       1 GSP        -0.3347
     17 C3'        30.0560   28.5270   85.4280 C.3       1 GSP         0.1151
     18 O3'        31.1690   28.1710   84.6510 O.3       1 GSP        -0.3864
     19 C2'        30.5720   29.3580   86.5830 C.3       1 GSP         0.1407
     20 O2'        31.8420   28.9120   86.9940 O.3       1 GSP        -0.3835
     21 C1'        30.6400   30.7370   85.9560 C.3       1 GSP         0.2218
     22 N9         30.5850   31.7990   86.9820 N.pl3     1 GSP        -0.0954
     23 C8         29.7780   31.8600   88.0800 C.2       1 GSP         0.1855
     24 N7         30.0580   32.9980   88.7580 N.2       1 GSP        -0.1929
     25 C5         31.0460   33.6570   88.0910 C.2       1 GSP         0.2558
     26 C6         31.7120   34.8500   88.3230 C.2       1 GSP         0.2628
     27 O6         31.4140   35.5160   89.3160 O.2       1 GSP        -0.3594
     28 N1         32.6990   35.2840   87.4490 N.am      1 GSP        -0.2478
     29 C2         33.0310   34.5250   86.3300 C.cat     1 GSP         0.2041
     30 N2         33.9710   34.9050   85.4660 N.pl3     1 GSP        -0.3327
     31 N3         32.3480   33.3420   86.1230 N.pl3     1 GSP        -0.1901
     32 C4         31.3880   32.9190   86.9780 C.2       1 GSP         0.3268
     33 H1         19.8393   29.9465   82.9898 H         1 GSP         0.1255
     34 H2         27.1770   29.9290   84.0948 H         1 GSP         0.0648
     35 H3         27.4927   28.2103   84.5106 H         1 GSP         0.0648
     36 H4         29.4903   29.3907   83.5475 H         1 GSP         0.0651
     37 H5         29.4831   27.6483   85.7591 H         1 GSP         0.0648
     38 H6         31.7132   27.5640   85.1388 H         1 GSP         0.2100
     39 H7         29.8795   29.3383   87.4374 H         1 GSP         0.0677
     40 H8         31.7835   28.0053   87.2714 H         1 GSP         0.2101
     41 H9         31.5779   30.8458   85.3916 H         1 GSP         0.1021
     42 H10        29.0333   31.1178   88.3637 H         1 GSP         0.1823
     43 H11        33.1741   36.1463   87.6239 H         1 GSP         0.1819
     44 H12        34.1884   34.3160   84.6495 H         1 GSP         0.1774
     45 H13        34.4804   35.7878   85.6145 H         1 GSP         0.1774
     46 H14        32.5749   32.7683   85.2982 H         1 GSP         0.2519
@<TRIPOS>BOND
     1    2    1 1  
     2    1    3 1  
     3    1    4 ar 
     4    1    5 ar 
     5    6    2 1  
     6    6    7 ar 
     7    6    8 ar 
     8   12    6 1  
     9    9   10 ar 
    10    9   11 ar 
    11    9   12 1  
    12    9   13 1  
    13   13   14 1  
    14   14   15 1  
    15   15   16 1  
    16   15   17 1  
    17   16   21 1  
    18   17   18 1  
    19   17   19 1  
    20   19   20 1  
    21   19   21 1  
    22   21   22 1  
    23   22   23 1  
    24   22   32 1  
    25   23   24 2  
    26   24   25 1  
    27   25   26 1  
    28   25   32 2  
    29   26   27 2  
    30   26   28 am 
    31   28   29 ar 
    32   29   30 ar 
    33   29   31 ar 
    34   31   32 1  
    35    3   33 1  
    36   14   34 1  
    37   14   35 1  
    38   15   36 1  
    39   17   37 1  
    40   18   38 1  
    41   19   39 1  
    42   20   40 1  
    43   21   41 1  
    44   23   42 1  
    45   28   43 1  
    46   30   44 1  
    47   30   45 1  
    48   31   46 1  
@<TRIPOS>SUBSTRUCTURE
     1 GSP         1

