### 
### Created by X-TOOL on Mon Aug  2 16:13:58 2021
### 

@<TRIPOS>MOLECULE
6hq7_ligand
   35    38     1     0     0
SMALL
GAST_HUCK


@<TRIPOS>ATOM
      1 PA         16.7900   39.4080    9.7940 P.3       1 PCG         0.2557
      2 O1A        18.0180   39.7020   10.6260 O.co2     1 PCG        -0.6177
      3 O2A        15.4930   39.2390   10.5370 O.co2     1 PCG        -0.6177
      4 O5'        16.6570   40.6030    8.6950 O.3       1 PCG        -0.2514
      5 C5'        17.5670   40.7020    7.5800 C.3       1 PCG         0.1128
      6 C4'        17.5980   39.3490    6.8820 C.3       1 PCG         0.1243
      7 O4'        18.4640   39.1880    5.7510 O.3       1 PCG        -0.3343
      8 C3'        18.0730   38.3010    7.8600 C.3       1 PCG         0.1541
      9 O3'        17.0600   38.1320    8.8460 O.3       1 PCG        -0.2453
     10 C2'        18.3720   37.1400    6.9490 C.3       1 PCG         0.1461
     11 O2'        17.1840   36.3780    6.7790 O.3       1 PCG        -0.3831
     12 C1'        18.7490   37.7810    5.6200 C.3       1 PCG         0.2222
     13 N9         20.1780   37.6750    5.2320 N.pl3     1 PCG        -0.0954
     14 C8         20.6330   37.1880    4.0610 C.2       1 PCG         0.1855
     15 N7         21.9840   37.2790    3.9950 N.2       1 PCG        -0.1929
     16 C5         22.3900   37.8450    5.1440 C.2       1 PCG         0.2558
     17 C6         23.6880   38.2500    5.7280 C.2       1 PCG         0.2628
     18 O6         24.7320   38.0520    5.0890 O.2       1 PCG        -0.3594
     19 N1         23.7060   38.8240    6.9320 N.am      1 PCG        -0.2478
     20 C2         22.5680   39.0450    7.6270 C.cat     1 PCG         0.2041
     21 N2         22.6430   39.6120    8.8450 N.pl3     1 PCG        -0.3327
     22 N3         21.3450   38.7080    7.1560 N.pl3     1 PCG        -0.1901
     23 C4         21.2050   38.1100    5.9490 C.2       1 PCG         0.3268
     24 H1         18.5737   40.9600    7.9405 H         1 PCG         0.0647
     25 H2         17.2185   41.4759    6.8803 H         1 PCG         0.0647
     26 H3         16.5701   39.1257    6.5602 H         1 PCG         0.0655
     27 H4         18.9977   38.6134    8.3672 H         1 PCG         0.0712
     28 H5         19.1859   36.5130    7.3420 H         1 PCG         0.0681
     29 H6         16.8902   36.0589    7.6242 H         1 PCG         0.2102
     30 H7         18.1339   37.3334    4.8254 H         1 PCG         0.1022
     31 H8         20.0015   36.7772    3.2746 H         1 PCG         0.1823
     32 H9         24.5819   39.0972    7.3297 H         1 PCG         0.1819
     33 H10        21.7839   39.7862    9.3857 H         1 PCG         0.1774
     34 H11        23.5596   39.8718    9.2366 H         1 PCG         0.1774
     35 H12        20.5091   38.9091    7.7233 H         1 PCG         0.2519
@<TRIPOS>BOND
     1    1    2 ar 
     2    1    3 ar 
     3    1    4 1  
     4    1    9 1  
     5    4    5 1  
     6    5    6 1  
     7    6    7 1  
     8    6    8 1  
     9    7   12 1  
    10    8    9 1  
    11    8   10 1  
    12   10   11 1  
    13   10   12 1  
    14   12   13 1  
    15   13   14 1  
    16   13   23 1  
    17   14   15 2  
    18   15   16 1  
    19   16   17 1  
    20   16   23 2  
    21   17   18 2  
    22   17   19 am 
    23   19   20 ar 
    24   20   21 ar 
    25   20   22 ar 
    26   22   23 1  
    27    5   24 1  
    28    5   25 1  
    29    6   26 1  
    30    8   27 1  
    31   10   28 1  
    32   11   29 1  
    33   12   30 1  
    34   14   31 1  
    35   19   32 1  
    36   21   33 1  
    37   21   34 1  
    38   22   35 1  
@<TRIPOS>SUBSTRUCTURE
     1 PCG         1

