### 
### Created by X-TOOL on Mon Aug  2 16:12:21 2021
### 

@<TRIPOS>MOLECULE
5ymx_ligand
   41    43     1     0     0
SMALL
GAST_HUCK


@<TRIPOS>ATOM
      1 PB        -18.7050   24.6490   -8.7200 P.3       1 GDP         0.2069
      2 O1B       -18.3760   24.2770  -10.1440 O.co2     1 GDP        -0.5891
      3 O2B       -19.9840   24.0410   -8.2330 O.co2     1 GDP        -0.5891
      4 O3B       -17.5680   24.4310   -7.7680 O.co2     1 GDP        -0.5891
      5 O3A       -18.9460   26.2600   -8.6490 O.3       1 GDP        -0.1548
      6 PA        -19.0250   27.3650   -9.8340 P.3       1 GDP         0.3276
      7 O1A       -20.2060   27.0630  -10.7010 O.co2     1 GDP        -0.5556
      8 O2A       -17.7000   27.5430  -10.5140 O.co2     1 GDP        -0.5556
      9 O5'       -19.2960   28.6910   -8.9810 O.3       1 GDP        -0.2436
     10 C5'       -20.4920   28.8510   -8.2110 C.3       1 GDP         0.1132
     11 C4'       -20.8490   30.3330   -8.1270 C.3       1 GDP         0.1190
     12 O4'       -19.8150   31.0490   -7.4390 O.3       1 GDP        -0.3347
     13 C3'       -20.9980   30.9970   -9.4850 C.3       1 GDP         0.1151
     14 O3'       -22.0490   31.9700   -9.3730 O.3       1 GDP        -0.3864
     15 C2'       -19.6730   31.7010   -9.6760 C.3       1 GDP         0.1407
     16 O2'       -19.7780   32.8440  -10.5280 O.3       1 GDP        -0.3835
     17 C1'       -19.3450   32.1160   -8.2590 C.3       1 GDP         0.2218
     18 N9        -17.9000   32.2710   -8.0460 N.pl3     1 GDP        -0.0954
     19 C8        -16.9350   31.3700   -8.3670 C.2       1 GDP         0.1855
     20 N7        -15.7130   31.8490   -8.0160 N.2       1 GDP        -0.1929
     21 C5        -15.9210   33.0500   -7.4240 C.2       1 GDP         0.2558
     22 C6        -15.0720   34.0790   -6.8170 C.2       1 GDP         0.2628
     23 O6        -13.8370   33.9390   -6.7560 O.2       1 GDP        -0.3594
     24 N1        -15.6790   35.1750   -6.3360 N.am      1 GDP        -0.2478
     25 C2        -17.0040   35.3750   -6.3770 C.cat     1 GDP         0.2041
     26 N2        -17.5040   36.5220   -5.8550 N.pl3     1 GDP        -0.3327
     27 N3        -17.8550   34.4740   -6.9240 N.pl3     1 GDP        -0.1901
     28 C4        -17.3560   33.3200   -7.4430 C.2       1 GDP         0.3268
     29 H1        -20.3314   28.4546   -7.1976 H         1 GDP         0.0648
     30 H2        -21.3146   28.3025   -8.6932 H         1 GDP         0.0648
     31 H3        -21.7961   30.4290   -7.5758 H         1 GDP         0.0651
     32 H4        -21.2041   30.2752  -10.2890 H         1 GDP         0.0648
     33 H5        -22.1672   32.4045  -10.2095 H         1 GDP         0.2100
     34 H6        -18.9144   31.0147  -10.0804 H         1 GDP         0.0677
     35 H7        -20.3880   33.4656  -10.1484 H         1 GDP         0.2101
     36 H8        -19.8565   33.0576   -8.0106 H         1 GDP         0.1021
     37 H9        -17.1149   30.4044   -8.8372 H         1 GDP         0.1823
     38 H10       -15.1089   35.8849   -5.9223 H         1 GDP         0.1819
     39 H11       -18.5187   36.6976   -5.8752 H         1 GDP         0.1774
     40 H12       -16.8691   37.2178   -5.4383 H         1 GDP         0.1774
     41 H13       -18.8677   34.6606   -6.9466 H         1 GDP         0.2519
@<TRIPOS>BOND
     1    1    2 ar 
     2    1    3 ar 
     3    1    4 ar 
     4    1    5 1  
     5    5    6 1  
     6    6    7 ar 
     7    6    8 ar 
     8    6    9 1  
     9    9   10 1  
    10   10   11 1  
    11   11   12 1  
    12   11   13 1  
    13   12   17 1  
    14   13   14 1  
    15   13   15 1  
    16   15   16 1  
    17   15   17 1  
    18   17   18 1  
    19   18   19 1  
    20   18   28 1  
    21   19   20 2  
    22   20   21 1  
    23   21   22 1  
    24   21   28 2  
    25   22   23 2  
    26   22   24 am 
    27   24   25 ar 
    28   25   26 ar 
    29   25   27 ar 
    30   27   28 1  
    31   10   29 1  
    32   10   30 1  
    33   11   31 1  
    34   13   32 1  
    35   14   33 1  
    36   15   34 1  
    37   16   35 1  
    38   17   36 1  
    39   19   37 1  
    40   24   38 1  
    41   26   39 1  
    42   26   40 1  
    43   27   41 1  
@<TRIPOS>SUBSTRUCTURE
     1 GDP         1

