### 
### Created by X-TOOL on Mon Aug  2 16:15:06 2021
### 

@<TRIPOS>MOLECULE
6mxc_ligand
   37    39     1     0     0
SMALL
GAST_HUCK


@<TRIPOS>ATOM
      1 P          -8.1230    4.5030  -55.8560 P.3       1 MOL         0.2008
      2 O1P        -9.4200    4.6300  -56.6390 O.co2     1 MOL        -0.5537
      3 O2P        -7.5090    5.8330  -55.4780 O.co2     1 MOL        -0.5537
      4 O3P        -7.1640    3.5400  -56.4960 O.co2     1 MOL        -0.5537
      5 O5'        -8.6810    3.9990  -54.4730 O.3       1 MOL        -0.2734
      6 C5'        -8.0230    3.0410  -53.7100 C.3       1 MOL         0.1072
      7 C4'        -8.7010    2.8640  -52.3770 C.3       1 MOL         0.1183
      8 O4'       -10.1520    2.8140  -52.5300 O.3       1 MOL        -0.3347
      9 C3'        -8.3400    1.5510  -51.7180 C.3       1 MOL         0.1150
     10 O3'        -7.1490    1.6580  -50.9920 O.3       1 MOL        -0.3864
     11 C2'        -9.5720    1.2120  -50.9030 C.3       1 MOL         0.1407
     12 O2'        -9.6490    1.9860  -49.7260 O.3       1 MOL        -0.3835
     13 C1'       -10.6640    1.7120  -51.8160 C.3       1 MOL         0.2218
     14 N9        -11.0930    0.6840  -52.7660 N.pl3     1 MOL        -0.0954
     15 C8        -10.9610    0.7040  -54.0910 C.2       1 MOL         0.1855
     16 N7        -11.5990   -0.3930  -54.5730 N.2       1 MOL        -0.1929
     17 C5        -12.1240   -1.0760  -53.5290 C.2       1 MOL         0.2558
     18 C6        -12.8810   -2.2490  -53.3840 C.2       1 MOL         0.2628
     19 O6        -13.1970   -2.9400  -54.3910 O.2       1 MOL        -0.3594
     20 N1        -13.2590   -2.6360  -52.1540 N.am      1 MOL        -0.2478
     21 C2        -12.9430   -1.9370  -51.0580 C.cat     1 MOL         0.2041
     22 N2        -13.3240   -2.3690  -49.8200 N.pl3     1 MOL        -0.3327
     23 N3        -12.2070   -0.8020  -51.1840 N.pl3     1 MOL        -0.1901
     24 C4        -11.8130   -0.3660  -52.4020 C.2       1 MOL         0.3268
     25 H1         -6.9834    3.3612  -53.5465 H         1 MOL         0.0639
     26 H2         -8.0309    2.0822  -54.2491 H         1 MOL         0.0639
     27 H3         -8.4168    3.7018  -51.7234 H         1 MOL         0.0650
     28 H4         -8.1927    0.7757  -52.4842 H         1 MOL         0.0648
     29 H5         -7.2494    2.3185  -50.3166 H         1 MOL         0.2100
     30 H6         -9.6442    0.1373  -50.6799 H         1 MOL         0.0677
     31 H7         -8.8816    1.8230  -49.1903 H         1 MOL         0.2101
     32 H8        -11.5282    2.0259  -51.2122 H         1 MOL         0.1021
     33 H9        -10.4392    1.4587  -54.6777 H         1 MOL         0.1823
     34 H10       -13.7945   -3.4747  -52.0545 H         1 MOL         0.1819
     35 H11       -13.0743   -1.8215  -48.9841 H         1 MOL         0.1774
     36 H12       -13.8611   -3.2424  -49.7221 H         1 MOL         0.1774
     37 H13       -11.9463   -0.2678  -50.3428 H         1 MOL         0.2519
@<TRIPOS>BOND
     1    1    2 ar 
     2    1    3 ar 
     3    1    4 ar 
     4    1    5 1  
     5    5    6 1  
     6    6    7 1  
     7    7    8 1  
     8    7    9 1  
     9    8   13 1  
    10    9   10 1  
    11    9   11 1  
    12   11   12 1  
    13   11   13 1  
    14   13   14 1  
    15   14   15 1  
    16   14   24 1  
    17   15   16 2  
    18   16   17 1  
    19   17   18 1  
    20   17   24 2  
    21   18   19 2  
    22   18   20 am 
    23   20   21 ar 
    24   21   22 ar 
    25   21   23 ar 
    26   23   24 1  
    27    6   25 1  
    28    6   26 1  
    29    7   27 1  
    30    9   28 1  
    31   10   29 1  
    32   11   30 1  
    33   12   31 1  
    34   13   32 1  
    35   15   33 1  
    36   20   34 1  
    37   22   35 1  
    38   22   36 1  
    39   23   37 1  
@<TRIPOS>SUBSTRUCTURE
     1 MOL         1

