### 
### Created by X-TOOL on Mon Aug  2 16:10:54 2021
### 

@<TRIPOS>MOLECULE
6j72_ligand
   45    47     1     0     0
SMALL
GAST_HUCK


@<TRIPOS>ATOM
      1 PG          3.8910    9.7550   43.8640 P.3       1 GTP         0.1879
      2 O1G         2.6210   10.5530   43.6950 O.co2     1 GTP        -0.6091
      3 O2G         3.9040    8.6050   42.8870 O.co2     1 GTP        -0.6091
      4 O3G         5.0830   10.6470   43.6060 O.co2     1 GTP        -0.6091
      5 O3B         3.9700    9.1840   45.3700 O.3       1 GTP        -0.1546
      6 PB          3.7490   10.1500   46.6380 P.3       1 GTP         0.3553
      7 O1B         2.4620   10.9210   46.4780 O.co2     1 GTP        -0.5652
      8 O2B         4.9190   11.0850   46.8280 O.co2     1 GTP        -0.5652
      9 O3A         3.6060    9.1650   47.9020 O.3       1 GTP        -0.1171
     10 PA          2.1850    8.5520   48.3430 P.3       1 GTP         0.3266
     11 O1A         1.4800    9.5170   49.2640 O.co2     1 GTP        -0.5692
     12 O2A         1.3310    8.2100   47.1460 O.co2     1 GTP        -0.5692
     13 O5'         2.5800    7.2170   49.1440 O.3       1 GTP        -0.2441
     14 C5'         3.7760    6.5160   48.8900 C.3       1 GTP         0.1131
     15 C4'         3.6680    5.1820   49.6130 C.3       1 GTP         0.1190
     16 O4'         4.1380    5.3870   50.9280 O.3       1 GTP        -0.3347
     17 C3'         2.2180    4.7350   49.7110 C.3       1 GTP         0.1151
     18 O3'         2.1110    3.3840   49.3280 O.3       1 GTP        -0.3864
     19 C2'         1.8470    4.8720   51.1720 C.3       1 GTP         0.1407
     20 O2'         1.1510    3.7350   51.6240 O.3       1 GTP        -0.3835
     21 C1'         3.1750    5.0180   51.8930 C.3       1 GTP         0.2218
     22 N9          3.0900    6.0800   52.9090 N.pl3     1 GTP        -0.0954
     23 C8          2.7950    7.4040   52.7030 C.2       1 GTP         0.1855
     24 N7          2.8270    8.0380   53.8980 N.2       1 GTP        -0.1929
     25 C5          3.1430    7.1400   54.8580 C.2       1 GTP         0.2558
     26 C6          3.3090    7.2500   56.2330 C.2       1 GTP         0.2628
     27 O6          3.1610    8.3360   56.7910 O.2       1 GTP        -0.3594
     28 N1          3.6420    6.1290   56.9680 N.am      1 GTP        -0.2478
     29 C2          3.8030    4.9110   56.3380 C.cat     1 GTP         0.2041
     30 N2          4.1220    3.8300   57.0440 N.pl3     1 GTP        -0.3327
     31 N3          3.6360    4.8120   54.9740 N.pl3     1 GTP        -0.1901
     32 C4          3.3130    5.9070   54.2470 C.2       1 GTP         0.3268
     33 H1          4.6364    7.0848   49.2722 H         1 GTP         0.0648
     34 H2          3.8960    6.3517   47.8090 H         1 GTP         0.0648
     35 H3          4.2666    4.4180   49.0954 H         1 GTP         0.0651
     36 H4          1.5704    5.3610   49.0795 H         1 GTP         0.0648
     37 H5          1.2038    3.1091   49.3907 H         1 GTP         0.2100
     38 H6          1.2236    5.7646   51.3288 H         1 GTP         0.0677
     39 H7          1.6998    2.9667   51.5191 H         1 GTP         0.2101
     40 H8          3.4538    4.0667   52.3698 H         1 GTP         0.1021
     41 H9          2.5730    7.8657   51.7420 H         1 GTP         0.1823
     42 H10         3.7666    6.1996   57.9577 H         1 GTP         0.1819
     43 H11         4.2414    2.9228   56.5711 H         1 GTP         0.1774
     44 H12         4.2496    3.9000   58.0637 H         1 GTP         0.1774
     45 H13         3.7573    3.9023   54.5063 H         1 GTP         0.2519
@<TRIPOS>BOND
     1    1    2 ar 
     2    1    3 ar 
     3    1    4 ar 
     4    1    5 1  
     5    5    6 1  
     6    6    7 ar 
     7    6    8 ar 
     8    6    9 1  
     9    9   10 1  
    10   10   11 ar 
    11   10   12 ar 
    12   10   13 1  
    13   13   14 1  
    14   14   15 1  
    15   15   16 1  
    16   15   17 1  
    17   16   21 1  
    18   17   18 1  
    19   17   19 1  
    20   19   20 1  
    21   19   21 1  
    22   21   22 1  
    23   22   23 1  
    24   22   32 1  
    25   23   24 2  
    26   24   25 1  
    27   25   26 1  
    28   25   32 2  
    29   26   27 2  
    30   26   28 am 
    31   28   29 ar 
    32   29   30 ar 
    33   29   31 ar 
    34   31   32 1  
    35   14   33 1  
    36   14   34 1  
    37   15   35 1  
    38   17   36 1  
    39   18   37 1  
    40   19   38 1  
    41   20   39 1  
    42   21   40 1  
    43   23   41 1  
    44   28   42 1  
    45   30   43 1  
    46   30   44 1  
    47   31   45 1  
@<TRIPOS>SUBSTRUCTURE
     1 GTP         1

