### 
### Created by X-TOOL on Mon Sep 10 21:13:31 2018
### 

@<TRIPOS>MOLECULE
5kma_ligand
   45    47     1     0     0
SMALL
GAST_HUCK


@<TRIPOS>ATOM
      1 C1        -31.6790    6.5410  -23.9730 C.3       1 777         0.0217
      2 C3        -31.8310    7.1980  -22.6120 C.3       1 777        -0.0483
      3 N4        -32.2960    5.2190  -23.9680 N.am      1 777        -0.2769
      4 P1        -31.2780    3.8340  -23.9130 P.3       1 777         0.2014
      5 O2        -32.0550    2.6270  -24.3900 O.co2     1 777        -0.6076
      6 O3        -30.5960    3.7670  -22.5740 O.co2     1 777        -0.6076
      7 O5'       -30.1030    4.1760  -24.9640 O.3       1 777        -0.2586
      8 C5'       -30.3250    3.9980  -26.3620 C.3       1 777         0.1127
      9 C4'       -29.3300    4.8840  -27.0870 C.3       1 777         0.1192
     10 O4'       -29.2830    4.4480  -28.4440 O.3       1 777        -0.3347
     11 C3'       -29.7550    6.3530  -27.1030 C.3       1 777         0.1151
     12 O3'       -28.7970    7.1710  -26.3970 O.3       1 777        -0.3864
     13 C2'       -29.8830    6.6980  -28.5890 C.3       1 777         0.1407
     14 O2'       -29.4250    8.0090  -28.9490 O.3       1 777        -0.3835
     15 C1'       -29.0620    5.5990  -29.2450 C.3       1 777         0.2218
     16 N9        -29.5220    5.2950  -30.6060 N.pl3     1 777        -0.0954
     17 C4        -28.6890    5.1300  -31.6260 C.2       1 777         0.3268
     18 N3        -27.3440    5.2110  -31.7630 N.pl3     1 777        -0.1901
     19 C2        -26.7920    4.9890  -32.9820 C.cat     1 777         0.2041
     20 N2        -25.4440    5.0680  -33.1040 N.pl3     1 777        -0.3327
     21 N1        -27.5360    4.7250  -34.0770 N.am      1 777        -0.2478
     22 C8        -30.7930    5.1100  -31.0100 C.2       1 777         0.1855
     23 N7        -30.8240    4.8310  -32.3350 N.2       1 777        -0.1929
     24 C5        -29.5460    4.8400  -32.7710 C.2       1 777         0.2558
     25 C6        -28.8770    4.6250  -34.0570 C.2       1 777         0.2628
     26 O6        -29.5710    4.3830  -35.0750 O.2       1 777        -0.3594
     27 H1        -30.6096    6.4415  -24.2107 H         1 777         0.0472
     28 H2        -32.1673    7.1666  -24.7347 H         1 777         0.0472
     29 H3        -31.3618    8.1927  -22.6306 H         1 777         0.0245
     30 H4        -31.3418    6.5761  -21.8479 H         1 777         0.0245
     31 H5        -32.8995    7.3011  -22.3719 H         1 777         0.0245
     32 H6        -33.2907    5.1202  -23.9960 H         1 777         0.1652
     33 H7        -31.3524    4.2931  -26.6217 H         1 777         0.0650
     34 H8        -30.1648    2.9455  -26.6387 H         1 777         0.0650
     35 H9        -28.3411    4.7908  -26.6144 H         1 777         0.0651
     36 H10       -30.7335    6.4686  -26.6141 H         1 777         0.0648
     37 H11       -27.9471    7.0927  -26.8142 H         1 777         0.2100
     38 H12       -30.9362    6.6177  -28.8961 H         1 777         0.0677
     39 H13       -28.5050    8.0937  -28.7278 H         1 777         0.2101
     40 H14       -27.9974    5.8751  -29.2638 H         1 777         0.1021
     41 H15       -26.7490    5.4378  -30.9534 H         1 777         0.2519
     42 H16       -24.9992    4.9039  -34.0184 H         1 777         0.1774
     43 H17       -24.8648    5.2921  -32.2823 H         1 777         0.1774
     44 H18       -27.0648    4.5969  -34.9497 H         1 777         0.1819
     45 H19       -31.6683    5.1752  -30.3654 H         1 777         0.1823
@<TRIPOS>BOND
     1    1    2 1  
     2    1    3 1  
     3    3    4 am 
     4    4    5 ar 
     5    4    6 ar 
     6    4    7 1  
     7    7    8 1  
     8    8    9 1  
     9    9   10 1  
    10    9   11 1  
    11   10   15 1  
    12   11   12 1  
    13   11   13 1  
    14   13   14 1  
    15   13   15 1  
    16   15   16 1  
    17   16   17 1  
    18   16   22 1  
    19   17   18 1  
    20   17   24 2  
    21   18   19 ar 
    22   19   20 ar 
    23   19   21 ar 
    24   21   25 am 
    25   22   23 2  
    26   23   24 1  
    27   24   25 1  
    28   25   26 2  
    29    1   27 1  
    30    1   28 1  
    31    2   29 1  
    32    2   30 1  
    33    2   31 1  
    34    3   32 1  
    35    8   33 1  
    36    8   34 1  
    37    9   35 1  
    38   11   36 1  
    39   12   37 1  
    40   13   38 1  
    41   14   39 1  
    42   15   40 1  
    43   18   41 1  
    44   20   42 1  
    45   20   43 1  
    46   21   44 1  
    47   22   45 1  
@<TRIPOS>SUBSTRUCTURE
     1 777         1

