### 
### Created by X-TOOL on Mon Sep 10 21:13:30 2018
### 

@<TRIPOS>MOLECULE
5ipc_ligand
   59    63     1     0     0
SMALL
GAST_HUCK


@<TRIPOS>ATOM
      1 C8        -29.6950    6.8620  -28.4360 C.3       1 6CE         0.1407
      2 C5        -29.2010    4.1980  -25.9000 C.3       1 6CE         0.0416
      3 C6        -28.7470    5.2130  -26.9490 C.3       1 6CE         0.1011
      4 C2        -32.1840    7.8030  -24.2410 C.3       1 6CE        -0.0196
      5 C4        -34.0790    8.5920  -22.4810 C.ar      1 6CE        -0.0215
      6 NE2       -32.3180    5.3760  -23.7230 N.am      1 6CE        -0.2878
      7 P1        -31.5010    3.8650  -23.9580 P.3       1 6CE         0.1236
      8 O2        -30.2940    3.8020  -23.0490 O.co2     1 6CE        -0.5995
      9 O3        -32.5240    2.7670  -23.8020 O.co2     1 6CE        -0.5995
     10 S4        -30.9270    3.8400  -25.9470 S.3       1 6CE        -0.0412
     11 C7        -29.4900    6.5470  -26.9540 C.3       1 6CE         0.1134
     12 C9        -28.8590    5.7870  -29.1100 C.3       1 6CE         0.2218
     13 O10       -28.9390    4.6690  -28.2500 O.3       1 6CE        -0.3365
     14 N11       -29.3780    5.4350  -30.4350 N.pl3     1 6CE        -0.0954
     15 C12       -30.6640    5.2250  -30.7680 C.2       1 6CE         0.1855
     16 N13       -30.7540    4.9270  -32.0870 N.2       1 6CE        -0.1929
     17 C14       -29.4990    4.9350  -32.5870 C.2       1 6CE         0.2558
     18 C15       -28.5980    5.2640  -31.4850 C.2       1 6CE         0.3268
     19 N16       -27.2610    5.3530  -31.6670 N.pl3     1 6CE        -0.1901
     20 C17       -26.7750    5.1150  -32.9050 C.cat     1 6CE         0.2041
     21 N18       -27.5370    4.8130  -33.9780 N.am      1 6CE        -0.2478
     22 C19       -28.8680    4.6990  -33.8980 C.2       1 6CE         0.2628
     23 N20       -25.3270    5.2030  -33.0900 N.pl3     1 6CE        -0.3327
     24 O21       -29.5510    4.4280  -34.9190 O.2       1 6CE        -0.3594
     25 O22       -28.7020    7.5260  -26.2520 O.3       1 6CE        -0.3864
     26 O23       -29.2760    8.1690  -28.8470 O.3       1 6CE        -0.3835
     27 C1        -31.5890    6.6130  -23.4900 C.3       1 6CE         0.0278
     28 C3        -33.5980    8.1330  -23.8060 C.2       1 6CE        -0.0447
     29 C13       -34.7440    8.1040  -24.6000 C.2       1 6CE         0.0165
     30 C22       -35.5360    8.7830  -22.6210 C.ar      1 6CE         0.0603
     31 N23       -35.8510    8.4760  -23.8910 N.pl3     1 6CE        -0.2891
     32 C24       -33.4390    8.8260  -21.2760 C.ar      1 6CE        -0.0747
     33 C25       -34.2120    9.2570  -20.2000 C.ar      1 6CE        -0.0792
     34 C26       -35.5910    9.4410  -20.3150 C.ar      1 6CE        -0.0768
     35 C27       -36.2610    9.2100  -21.5150 C.ar      1 6CE        -0.0443
     36 H1        -30.7575    6.7472  -28.6965 H         1 6CE         0.0677
     37 H2        -28.9578    4.5974  -24.9044 H         1 6CE         0.0418
     38 H3        -28.6490    3.2608  -26.0640 H         1 6CE         0.0418
     39 H4        -27.6779    5.4105  -26.7820 H         1 6CE         0.0632
     40 H5        -32.1938    7.5694  -25.3159 H         1 6CE         0.0365
     41 H6        -31.5484    8.6829  -24.0628 H         1 6CE         0.0365
     42 H7        -33.3174    5.3977  -23.7483 H         1 6CE         0.1644
     43 H8        -30.4659    6.4521  -26.4554 H         1 6CE         0.0647
     44 H9        -27.8168    6.1248  -29.2088 H         1 6CE         0.1021
     45 H10       -31.5066    5.2854  -30.0808 H         1 6CE         0.1823
     46 H11       -26.6333    5.5945  -30.8869 H         1 6CE         0.2519
     47 H12       -27.0919    4.6697  -34.8620 H         1 6CE         0.1819
     48 H13       -24.7187    5.4315  -32.2909 H         1 6CE         0.1774
     49 H14       -24.9155    5.0364  -34.0194 H         1 6CE         0.1774
     50 H15       -27.8625    7.6250  -26.6854 H         1 6CE         0.2100
     51 H16       -28.3649    8.2972  -28.6106 H         1 6CE         0.2101
     52 H17       -31.6066    6.8333  -22.4124 H         1 6CE         0.0489
     53 H18       -30.5485    6.4747  -23.8190 H         1 6CE         0.0489
     54 H19       -34.7551    7.8208  -25.6515 H         1 6CE         0.0795
     55 H20       -36.8040    8.5160  -24.2796 H         1 6CE         0.2216
     56 H21       -32.3700    8.6785  -21.1729 H         1 6CE         0.0540
     57 H22       -33.7303    9.4545  -19.2492 H         1 6CE         0.0510
     58 H23       -36.1544    9.7716  -19.4499 H         1 6CE         0.0530
     59 H24       -37.3321    9.3612  -21.5846 H         1 6CE         0.0541
@<TRIPOS>BOND
     1   11    1 1  
     2    1   12 1  
     3    1   26 1  
     4    2    3 1  
     5   10    2 1  
     6    3   11 1  
     7    3   13 1  
     8   27    4 1  
     9    4   28 1  
    10   28    5 1  
    11    5   30 ar 
    12    5   32 ar 
    13    7    6 am 
    14    6   27 1  
    15    7    8 ar 
    16    7    9 ar 
    17    7   10 1  
    18   11   25 1  
    19   12   13 1  
    20   12   14 1  
    21   14   15 1  
    22   14   18 1  
    23   15   16 2  
    24   16   17 1  
    25   17   18 2  
    26   17   22 1  
    27   18   19 1  
    28   19   20 ar 
    29   20   21 ar 
    30   20   23 ar 
    31   21   22 am 
    32   22   24 2  
    33   28   29 2  
    34   29   31 1  
    35   30   31 1  
    36   30   35 ar 
    37   32   33 ar 
    38   33   34 ar 
    39   34   35 ar 
    40    1   36 1  
    41    2   37 1  
    42    2   38 1  
    43    3   39 1  
    44    4   40 1  
    45    4   41 1  
    46    6   42 1  
    47   11   43 1  
    48   12   44 1  
    49   15   45 1  
    50   19   46 1  
    51   21   47 1  
    52   23   48 1  
    53   23   49 1  
    54   25   50 1  
    55   26   51 1  
    56   27   52 1  
    57   27   53 1  
    58   29   54 1  
    59   31   55 1  
    60   32   56 1  
    61   33   57 1  
    62   34   58 1  
    63   35   59 1  
@<TRIPOS>SUBSTRUCTURE
     1 6CE         1

