### 
### Created by X-TOOL on Mon Aug  2 16:12:55 2021
### 

@<TRIPOS>MOLECULE
6d9s_ligand
   48    50     1     0     0
SMALL
GAST_HUCK


@<TRIPOS>ATOM
      1 PB         58.7080  -17.8990   13.2620 P.3       1 G4P         0.2069
      2 O1B        58.2850  -17.5720   11.8510 O.co2     1 G4P        -0.5891
      3 O2B        59.5940  -19.1140   13.3470 O.co2     1 G4P        -0.5891
      4 O3B        57.6260  -17.8400   14.3110 O.co2     1 G4P        -0.5891
      5 O3A        59.7020  -16.7080   13.6740 O.3       1 G4P        -0.1548
      6 PA         60.8830  -16.2570   12.6880 P.3       1 G4P         0.3276
      7 O1A        60.4840  -16.4900   11.2530 O.co2     1 G4P        -0.5556
      8 O2A        61.3830  -14.9100   13.1500 O.co2     1 G4P        -0.5556
      9 O5'        61.9720  -17.3590   13.1000 O.3       1 G4P        -0.2436
     10 C5'        62.5680  -18.2000   12.1220 C.3       1 G4P         0.1135
     11 C4'        63.3590  -19.2940   12.8260 C.3       1 G4P         0.1244
     12 O4'        63.9340  -18.7710   14.0300 O.3       1 G4P        -0.3343
     13 C3'        62.4740  -20.4560   13.2590 C.3       1 G4P         0.1548
     14 O3'        63.0780  -21.7470   13.1950 O.3       1 G4P        -0.2374
     15 C2'        62.1610  -20.1680   14.7320 C.3       1 G4P         0.1461
     16 O2'        61.8820  -21.3260   15.4960 O.3       1 G4P        -0.3831
     17 C1'        63.4620  -19.4970   15.1760 C.3       1 G4P         0.2222
     18 N9         63.3270  -18.5960   16.3310 N.pl3     1 G4P        -0.0954
     19 C8         62.3440  -17.7210   16.5980 C.2       1 G4P         0.1855
     20 N7         62.5890  -17.0810   17.7710 N.2       1 G4P        -0.1929
     21 C5         63.7470  -17.5520   18.2690 C.2       1 G4P         0.2558
     22 C6         64.5880  -17.3170   19.4660 C.2       1 G4P         0.2628
     23 O6         64.2640  -16.4850   20.3420 O.2       1 G4P        -0.3594
     24 N1         65.7180  -18.0280   19.5870 N.am      1 G4P        -0.2478
     25 C2         66.0970  -18.9360   18.6620 C.cat     1 G4P         0.2041
     26 N2         67.2480  -19.6280   18.8330 N.pl3     1 G4P        -0.3327
     27 N3         65.3800  -19.2010   17.5480 N.pl3     1 G4P        -0.1901
     28 C4         64.2210  -18.5540   17.3110 C.2       1 G4P         0.3268
     29 PC         64.4830  -22.0880   12.4890 P.3       1 G4P         0.3279
     30 O1C        65.5810  -21.5230   13.3510 O.co2     1 G4P        -0.5556
     31 O2C        64.3980  -21.6320   11.0540 O.co2     1 G4P        -0.5556
     32 O3C        64.4870  -23.7040   12.4930 O.3       1 G4P        -0.1548
     33 PD         65.2030  -24.6700   13.5630 P.3       1 G4P         0.2069
     34 O1D        66.3180  -23.8560   14.1520 O.co2     1 G4P        -0.5891
     35 O2D        64.0960  -25.0040   14.5140 O.co2     1 G4P        -0.5891
     36 O3D        65.6380  -25.8650   12.7630 O.co2     1 G4P        -0.5891
     37 H1         63.2429  -17.6070   11.4873 H         1 G4P         0.0648
     38 H2         61.7837  -18.6546   11.4989 H         1 G4P         0.0648
     39 H3         64.1483  -19.6577   12.1517 H         1 G4P         0.0655
     40 H4         61.5562  -20.4626   12.6528 H         1 G4P         0.0712
     41 H5         61.3092  -19.4776   14.8197 H         1 G4P         0.0682
     42 H6         62.6341  -21.9060   15.4760 H         1 G4P         0.2102
     43 H7         64.1886  -20.2786   15.4426 H         1 G4P         0.1022
     44 H8         61.4748  -17.5490   15.9649 H         1 G4P         0.1823
     45 H9         66.2988  -17.8813   20.3877 H         1 G4P         0.1819
     46 H10        67.5412  -20.3216   18.1302 H         1 G4P         0.1774
     47 H11        67.8305  -19.4609   19.6659 H         1 G4P         0.1774
     48 H12        65.7211  -19.9022   16.8750 H         1 G4P         0.2519
@<TRIPOS>BOND
     1    1    2 ar 
     2    1    3 ar 
     3    1    4 ar 
     4    1    5 1  
     5    5    6 1  
     6    6    7 ar 
     7    6    8 ar 
     8    6    9 1  
     9    9   10 1  
    10   10   11 1  
    11   11   12 1  
    12   11   13 1  
    13   12   17 1  
    14   13   14 1  
    15   13   15 1  
    16   14   29 1  
    17   15   16 1  
    18   15   17 1  
    19   17   18 1  
    20   18   19 1  
    21   18   28 1  
    22   19   20 2  
    23   20   21 1  
    24   21   22 1  
    25   21   28 2  
    26   22   23 2  
    27   22   24 am 
    28   24   25 ar 
    29   25   26 ar 
    30   25   27 ar 
    31   27   28 1  
    32   29   30 ar 
    33   29   31 ar 
    34   29   32 1  
    35   32   33 1  
    36   33   34 ar 
    37   33   35 ar 
    38   33   36 ar 
    39   10   37 1  
    40   10   38 1  
    41   11   39 1  
    42   13   40 1  
    43   15   41 1  
    44   16   42 1  
    45   17   43 1  
    46   19   44 1  
    47   24   45 1  
    48   26   46 1  
    49   26   47 1  
    50   27   48 1  
@<TRIPOS>SUBSTRUCTURE
     1 G4P         1

