### 
### Created by X-TOOL on Mon Aug  2 16:16:52 2021
### 

@<TRIPOS>MOLECULE
6sge_ligand
   45    47     1     0     0
SMALL
GAST_HUCK


@<TRIPOS>ATOM
      1 PG         46.8570   14.4800   74.9450 P.3       1 GTP         0.1879
      2 O1G        45.8610   13.6960   75.7600 O.co2     1 GTP        -0.6091
      3 O2G        47.2660   15.8060   75.6390 O.co2     1 GTP        -0.6091
      4 O3G        46.3910   14.7680   73.2820 O.co2     1 GTP        -0.6091
      5 O3B        48.2140   13.5210   74.6320 O.3       1 GTP        -0.1546
      6 PB         49.0860   12.7650   75.8350 P.3       1 GTP         0.3553
      7 O1B        50.1150   13.7410   76.3770 O.co2     1 GTP        -0.5652
      8 O2B        48.1800   12.0990   76.8430 O.co2     1 GTP        -0.5652
      9 O3A        49.8340   11.7120   74.9300 O.3       1 GTP        -0.1171
     10 PA         49.7010   10.0900   75.0760 P.3       1 GTP         0.3266
     11 O1A        50.0970    9.6180   76.4420 O.co2     1 GTP        -0.5692
     12 O2A        48.3060    9.6880   74.5730 O.co2     1 GTP        -0.5692
     13 O5'        50.7850    9.6350   74.0170 O.3       1 GTP        -0.2441
     14 C5'        50.9180   10.2100   72.7440 C.3       1 GTP         0.1131
     15 C4'        51.6410    9.3160   71.7970 C.3       1 GTP         0.1190
     16 O4'        52.9980    9.1780   72.2830 O.3       1 GTP        -0.3347
     17 C3'        51.1380    7.7800   71.7440 C.3       1 GTP         0.1151
     18 O3'        51.2360    7.4650   70.3230 O.3       1 GTP        -0.3864
     19 C2'        51.9170    7.1670   72.6150 C.3       1 GTP         0.1407
     20 O2'        51.9660    5.7130   72.3290 O.3       1 GTP        -0.3835
     21 C1'        53.3780    7.7530   72.5780 C.3       1 GTP         0.2218
     22 N9         53.9890    7.6300   73.8020 N.pl3     1 GTP        -0.0954
     23 C8         53.5620    7.8920   75.0040 C.2       1 GTP         0.1855
     24 N7         54.4860    7.6150   75.9370 N.2       1 GTP        -0.1929
     25 C5         55.5070    7.1300   75.2420 C.2       1 GTP         0.2558
     26 C6         56.8320    6.6100   75.6960 C.2       1 GTP         0.2628
     27 O6         57.2110    6.5450   76.8110 O.2       1 GTP        -0.3594
     28 N1         57.6350    6.2110   74.6740 N.am      1 GTP        -0.2478
     29 C2         57.3230    6.2060   73.3000 C.cat     1 GTP         0.2041
     30 N2         58.2170    5.7500   72.3760 N.pl3     1 GTP        -0.3327
     31 N3         56.0790    6.6730   72.8260 N.pl3     1 GTP        -0.1901
     32 C4         55.2440    7.1050   73.8980 C.2       1 GTP         0.3268
     33 H1         51.4764   11.1531   72.8376 H         1 GTP         0.0648
     34 H2         49.9152   10.4160   72.3415 H         1 GTP         0.0648
     35 H3         51.6091    9.7580   70.7902 H         1 GTP         0.0651
     36 H4         50.0917    7.6684   72.0644 H         1 GTP         0.0648
     37 H5         50.9584    6.5680   70.1787 H         1 GTP         0.2100
     38 H6         51.5013    7.3178   73.6222 H         1 GTP         0.0677
     39 H7         51.0899    5.3503   72.3871 H         1 GTP         0.2101
     40 H8         54.0045    7.3043   71.7931 H         1 GTP         0.1021
     41 H9         52.5724    8.2888   75.2258 H         1 GTP         0.1823
     42 H10        58.5467    5.8855   74.9249 H         1 GTP         0.1819
     43 H11        57.9711    5.7540   71.3758 H         1 GTP         0.1774
     44 H12        59.1379    5.4017   72.6786 H         1 GTP         0.1774
     45 H13        55.8085    6.6986   71.8325 H         1 GTP         0.2519
@<TRIPOS>BOND
     1    1    2 ar 
     2    1    3 ar 
     3    1    4 ar 
     4    1    5 1  
     5    5    6 1  
     6    6    7 ar 
     7    6    8 ar 
     8    6    9 1  
     9    9   10 1  
    10   10   11 ar 
    11   10   12 ar 
    12   10   13 1  
    13   13   14 1  
    14   14   15 1  
    15   15   16 1  
    16   15   17 1  
    17   16   21 1  
    18   17   18 1  
    19   17   19 1  
    20   19   20 1  
    21   19   21 1  
    22   21   22 1  
    23   22   23 1  
    24   22   32 1  
    25   23   24 2  
    26   24   25 1  
    27   25   26 1  
    28   25   32 2  
    29   26   27 2  
    30   26   28 am 
    31   28   29 ar 
    32   29   30 ar 
    33   29   31 ar 
    34   31   32 1  
    35   14   33 1  
    36   14   34 1  
    37   15   35 1  
    38   17   36 1  
    39   18   37 1  
    40   19   38 1  
    41   20   39 1  
    42   21   40 1  
    43   23   41 1  
    44   28   42 1  
    45   30   43 1  
    46   30   44 1  
    47   31   45 1  
@<TRIPOS>SUBSTRUCTURE
     1 GTP         1

