### 
### Created by X-TOOL on Mon Aug  2 16:13:51 2021
### 

@<TRIPOS>MOLECULE
6hgs_ligand
   37    39     1     0     0
SMALL
GAST_HUCK


@<TRIPOS>ATOM
      1 P          31.5740   11.5400    6.1420 P.3       1 MOL         0.2008
      2 O1P        30.2210   11.9520    5.5640 O.co2     1 MOL        -0.5537
      3 O2P        31.5720   11.3350    7.6360 O.co2     1 MOL        -0.5537
      4 O3P        32.7350   12.4030    5.6670 O.co2     1 MOL        -0.5537
      5 O5'        31.9040   10.1190    5.4750 O.3       1 MOL        -0.2734
      6 C5'        31.3670    8.9170    6.0120 C.3       1 MOL         0.1072
      7 C4'        30.4750    8.2900    4.9690 C.3       1 MOL         0.1183
      8 O4'        31.2140    7.9880    3.7720 O.3       1 MOL        -0.3347
      9 C3'        29.9620    6.9920    5.5080 C.3       1 MOL         0.1150
     10 O3'        28.6410    6.7610    5.0010 O.3       1 MOL        -0.3864
     11 C2'        30.9490    5.9610    4.9960 C.3       1 MOL         0.1407
     12 O2'        30.2320    4.8030    4.5420 O.3       1 MOL        -0.3835
     13 C1'        31.6870    6.6400    3.8430 C.3       1 MOL         0.2218
     14 N9         33.1610    6.6460    4.0030 N.pl3     1 MOL        -0.0954
     15 C8         34.0040    7.7020    3.8720 C.2       1 MOL         0.1855
     16 N7         35.2960    7.3080    4.0520 N.2       1 MOL        -0.1929
     17 C5         35.2740    5.9670    4.2640 C.2       1 MOL         0.2558
     18 C6         36.2740    4.9230    4.5180 C.2       1 MOL         0.2628
     19 O6         37.5040    5.1890    4.5850 O.2       1 MOL        -0.3594
     20 N1         35.8180    3.6730    4.7000 N.am      1 MOL        -0.2478
     21 C2         34.4950    3.3620    4.6700 C.cat     1 MOL         0.2041
     22 N2         34.1340    2.0640    4.8710 N.pl3     1 MOL        -0.3327
     23 N3         33.5240    4.2730    4.4240 N.pl3     1 MOL        -0.1901
     24 C4         33.9480    5.5700    4.2470 C.2       1 MOL         0.3268
     25 H1         30.7815    9.1421    6.9156 H         1 MOL         0.0639
     26 H2         32.1839    8.2259    6.2671 H         1 MOL         0.0639
     27 H3         29.6411    8.9683    4.7358 H         1 MOL         0.0650
     28 H4         29.9415    6.9977    6.6078 H         1 MOL         0.0648
     29 H5         28.3120    5.9374    5.3413 H         1 MOL         0.2100
     30 H6         31.6568    5.6715    5.7867 H         1 MOL         0.0677
     31 H7         29.6401    5.0527    3.8422 H         1 MOL         0.2101
     32 H8         31.4427    6.1135    2.9086 H         1 MOL         0.1021
     33 H9         33.6913    8.7220    3.6535 H         1 MOL         0.1823
     34 H10        36.4790    2.9408    4.8644 H         1 MOL         0.1819
     35 H11        33.1392    1.7976    4.8541 H         1 MOL         0.1774
     36 H12        34.8558    1.3489    5.0399 H         1 MOL         0.1774
     37 H13        32.5291    4.0112    4.3725 H         1 MOL         0.2519
@<TRIPOS>BOND
     1    1    2 ar 
     2    1    3 ar 
     3    1    4 ar 
     4    1    5 1  
     5    5    6 1  
     6    6    7 1  
     7    7    8 1  
     8    7    9 1  
     9    8   13 1  
    10    9   10 1  
    11    9   11 1  
    12   11   12 1  
    13   11   13 1  
    14   13   14 1  
    15   14   15 1  
    16   14   24 1  
    17   15   16 2  
    18   16   17 1  
    19   17   18 1  
    20   17   24 2  
    21   18   19 2  
    22   18   20 am 
    23   20   21 ar 
    24   21   22 ar 
    25   21   23 ar 
    26   23   24 1  
    27    6   25 1  
    28    6   26 1  
    29    7   27 1  
    30    9   28 1  
    31   10   29 1  
    32   11   30 1  
    33   12   31 1  
    34   13   32 1  
    35   15   33 1  
    36   20   34 1  
    37   22   35 1  
    38   22   36 1  
    39   23   37 1  
@<TRIPOS>SUBSTRUCTURE
     1 MOL         1

