### 
### Created by X-TOOL on Mon Sep 10 21:13:32 2018
### 

@<TRIPOS>MOLECULE
5k1d_ligand
   37    39     1     0     0
SMALL
GAST_HUCK


@<TRIPOS>ATOM
      1 P          -0.6490    1.8220   18.3920 P.3       1 5GP         0.2008
      2 O1P         0.2930    1.0120   17.5020 O.co2     1 5GP        -0.5537
      3 O2P        -0.0160    2.8760   19.2690 O.co2     1 5GP        -0.5537
      4 O3P        -1.8930    2.3700   17.7250 O.co2     1 5GP        -0.5537
      5 O5'        -1.1830    0.7330   19.4350 O.3       1 5GP        -0.2734
      6 C5'        -2.1560    1.0840   20.4160 C.3       1 5GP         0.1072
      7 C4'        -1.9220    0.4040   21.7470 C.3       1 5GP         0.1183
      8 O4'        -2.2880   -1.0010   21.6450 O.3       1 5GP        -0.3347
      9 C3'        -0.4780    0.4400   22.2540 C.3       1 5GP         0.1150
     10 O3'        -0.4780    0.6430   23.6670 O.3       1 5GP        -0.3864
     11 C2'         0.0340   -0.9660   21.9300 C.3       1 5GP         0.1407
     12 O2'         1.0940   -1.4040   22.7530 O.3       1 5GP        -0.3835
     13 C1'        -1.2270   -1.8000   22.1340 C.3       1 5GP         0.2218
     14 N9         -1.2490   -3.0830   21.4170 N.pl3     1 5GP        -0.0954
     15 C8         -0.7730   -3.3220   20.1830 C.2       1 5GP         0.1855
     16 N7         -0.9870   -4.6190   19.8700 N.2       1 5GP        -0.1929
     17 C5         -1.6060   -5.2000   20.9230 C.2       1 5GP         0.2558
     18 C6         -2.0730   -6.4940   21.1690 C.2       1 5GP         0.2628
     19 O6         -1.9320   -7.3940   20.3050 O.2       1 5GP        -0.3594
     20 N1         -2.6750   -6.7690   22.3400 N.am      1 5GP        -0.2478
     21 C2         -2.8300   -5.8140   23.2770 C.cat     1 5GP         0.2041
     22 N2         -3.4340   -6.1260   24.4520 N.pl3     1 5GP        -0.3327
     23 N3         -2.3840   -4.5460   23.0650 N.pl3     1 5GP        -0.1901
     24 C4         -1.7800   -4.2200   21.8900 C.2       1 5GP         0.3268
     25 H1         -3.1498    0.7945   20.0439 H         1 5GP         0.0639
     26 H2         -2.1243    2.1730   20.5679 H         1 5GP         0.0639
     27 H3         -2.5627    0.8973   22.4927 H         1 5GP         0.0650
     28 H4          0.1155    1.2179   21.7515 H         1 5GP         0.0648
     29 H5          0.4178    0.6655   23.9826 H         1 5GP         0.2100
     30 H6          0.3689   -1.0165   20.8834 H         1 5GP         0.0677
     31 H7          0.8068   -1.4147   23.6585 H         1 5GP         0.2101
     32 H8         -1.3573   -1.9978   23.2082 H         1 5GP         0.1021
     33 H9         -0.2918   -2.5878   19.5385 H         1 5GP         0.1823
     34 H10        -3.0116   -7.6939   22.5171 H         1 5GP         0.1819
     35 H11        -3.5576   -5.4032   25.1754 H         1 5GP         0.1774
     36 H12        -3.7687   -7.0855   24.6202 H         1 5GP         0.1774
     37 H13        -2.5040   -3.8306   23.7963 H         1 5GP         0.2519
@<TRIPOS>BOND
     1    1    2 ar 
     2    1    3 ar 
     3    1    4 ar 
     4    1    5 1  
     5    5    6 1  
     6    6    7 1  
     7    7    8 1  
     8    7    9 1  
     9    8   13 1  
    10    9   10 1  
    11    9   11 1  
    12   11   12 1  
    13   11   13 1  
    14   13   14 1  
    15   14   15 1  
    16   14   24 1  
    17   15   16 2  
    18   16   17 1  
    19   17   18 1  
    20   17   24 2  
    21   18   19 2  
    22   18   20 am 
    23   20   21 ar 
    24   21   22 ar 
    25   21   23 ar 
    26   23   24 1  
    27    6   25 1  
    28    6   26 1  
    29    7   27 1  
    30    9   28 1  
    31   10   29 1  
    32   11   30 1  
    33   12   31 1  
    34   13   32 1  
    35   15   33 1  
    36   20   34 1  
    37   22   35 1  
    38   22   36 1  
    39   23   37 1  
@<TRIPOS>SUBSTRUCTURE
     1 5GP         1

