### 
### Created by X-TOOL on Mon Aug  2 16:12:51 2021
### 

@<TRIPOS>MOLECULE
6czf_ligand
   48    50     1     0     0
SMALL
GAST_HUCK


@<TRIPOS>ATOM
      1 PB        -24.3090   30.6310  -26.9550 P.3       1 G4P         0.2069
      2 O1B       -24.9250   30.2530  -28.2770 O.co2     1 G4P        -0.5891
      3 O2B       -24.2090   32.1340  -26.7660 O.co2     1 G4P        -0.5891
      4 O3B       -23.0390   29.8530  -26.6190 O.co2     1 G4P        -0.5891
      5 O3A       -25.3580   30.1700  -25.7920 O.3       1 G4P        -0.1548
      6 PA        -26.5040   29.0440  -25.9520 P.3       1 G4P         0.3276
      7 O1A       -27.5570   29.3330  -24.9040 O.co2     1 G4P        -0.5556
      8 O2A       -27.0330   28.9660  -27.3630 O.co2     1 G4P        -0.5556
      9 O5'       -25.7270   27.6980  -25.6190 O.3       1 G4P        -0.2436
     10 C5'       -26.4600   26.5220  -25.6040 C.3       1 G4P         0.1135
     11 C4'       -26.1310   25.6570  -26.8080 C.3       1 G4P         0.1244
     12 O4'       -26.2970   24.3290  -26.2580 O.3       1 G4P        -0.3343
     13 C3'       -27.0720   25.7610  -28.0170 C.3       1 G4P         0.1548
     14 O3'       -26.3820   25.2920  -29.1560 O.3       1 G4P        -0.2374
     15 C2'       -28.2350   24.8600  -27.6320 C.3       1 G4P         0.1461
     16 O2'       -28.8110   24.2570  -28.7790 O.3       1 G4P        -0.3831
     17 C1'       -27.5940   23.8360  -26.6770 C.3       1 G4P         0.2222
     18 N9        -28.5090   23.4720  -25.5480 N.pl3     1 G4P        -0.0954
     19 C8        -29.1470   24.2790  -24.6650 C.2       1 G4P         0.1855
     20 N7        -29.8830   23.5230  -23.8150 N.2       1 G4P        -0.1929
     21 C5        -29.7430   22.2210  -24.1870 C.2       1 G4P         0.2558
     22 C6        -30.2440   20.9040  -23.7280 C.2       1 G4P         0.2628
     23 O6        -31.0220   20.8260  -22.7590 O.2       1 G4P        -0.3594
     24 N1        -29.8270   19.7990  -24.3670 N.am      1 G4P        -0.2478
     25 C2        -28.9810   19.8770  -25.4180 C.cat     1 G4P         0.2041
     26 N2        -28.6090   18.7270  -26.0430 N.pl3     1 G4P        -0.3327
     27 N3        -28.4890   21.0470  -25.8940 N.pl3     1 G4P        -0.1901
     28 C4        -28.8310   22.2100  -25.3270 C.2       1 G4P         0.3268
     29 PC        -25.7770   26.2710  -30.2850 P.3       1 G4P         0.3279
     30 O1C       -24.6840   25.5180  -31.0140 O.co2     1 G4P        -0.5556
     31 O2C       -25.4260   27.6030  -29.7090 O.co2     1 G4P        -0.5556
     32 O3C       -27.0580   26.4070  -31.3160 O.3       1 G4P        -0.1548
     33 PD        -28.3660   27.3170  -31.0820 P.3       1 G4P         0.2069
     34 O1D       -28.0450   28.3190  -30.0440 O.co2     1 G4P        -0.5891
     35 O2D       -28.6330   27.9390  -32.4070 O.co2     1 G4P        -0.5891
     36 O3D       -29.3910   26.3070  -30.6730 O.co2     1 G4P        -0.5891
     37 H1        -27.5323   26.7668  -25.6199 H         1 G4P         0.0648
     38 H2        -26.2249   25.9638  -24.6858 H         1 G4P         0.0648
     39 H3        -25.0989   25.8451  -27.1386 H         1 G4P         0.0655
     40 H4        -27.4126   26.7937  -28.1826 H         1 G4P         0.0712
     41 H5        -29.0122   25.4345  -27.1068 H         1 G4P         0.0682
     42 H6        -29.1297   24.9336  -29.3648 H         1 G4P         0.2102
     43 H7        -27.4199   22.9125  -27.2487 H         1 G4P         0.1022
     44 H8        -29.0786   25.3656  -24.6424 H         1 G4P         0.1823
     45 H9        -30.1480   18.9031  -24.0599 H         1 G4P         0.1819
     46 H10       -27.9651   18.7624  -26.8462 H         1 G4P         0.1774
     47 H11       -28.9713   17.8211  -25.7129 H         1 G4P         0.1774
     48 H12       -27.8464   21.0409  -26.6990 H         1 G4P         0.2519
@<TRIPOS>BOND
     1    1    2 ar 
     2    1    3 ar 
     3    1    4 ar 
     4    1    5 1  
     5    5    6 1  
     6    6    7 ar 
     7    6    8 ar 
     8    6    9 1  
     9    9   10 1  
    10   10   11 1  
    11   11   12 1  
    12   11   13 1  
    13   12   17 1  
    14   13   14 1  
    15   13   15 1  
    16   14   29 1  
    17   15   16 1  
    18   15   17 1  
    19   17   18 1  
    20   18   19 1  
    21   18   28 1  
    22   19   20 2  
    23   20   21 1  
    24   21   22 1  
    25   21   28 2  
    26   22   23 2  
    27   22   24 am 
    28   24   25 ar 
    29   25   26 ar 
    30   25   27 ar 
    31   27   28 1  
    32   29   30 ar 
    33   29   31 ar 
    34   29   32 1  
    35   32   33 1  
    36   33   34 ar 
    37   33   35 ar 
    38   33   36 ar 
    39   10   37 1  
    40   10   38 1  
    41   11   39 1  
    42   13   40 1  
    43   15   41 1  
    44   16   42 1  
    45   17   43 1  
    46   19   44 1  
    47   24   45 1  
    48   26   46 1  
    49   26   47 1  
    50   27   48 1  
@<TRIPOS>SUBSTRUCTURE
     1 G4P         1

