### 
### Created by X-TOOL on Sat Aug  7 21:31:22 2021
### 

@<TRIPOS>MOLECULE
6n95_ligand
   91    93     1     0     0
SMALL
GAST_HUCK


@<TRIPOS>ATOM
      1 O33        19.7500   27.0430   13.4230 O.co2     1 YXS        -0.5537
      2 P3         19.2860   26.6850   14.8090 P.3       1 YXS         0.2013
      3 O31        19.1930   27.8910   15.7050 O.co2     1 YXS        -0.5537
      4 O32        18.0490   25.8320   14.7720 O.co2     1 YXS        -0.5537
      5 O3'        20.4980   25.8010   15.4170 O.3       1 YXS        -0.2674
      6 C3'        20.3730   25.0750   16.6230 C.3       1 YXS         0.1487
      7 C2'        21.1570   23.7990   16.4420 C.3       1 YXS         0.1432
      8 O2'        21.0140   23.1790   15.1390 O.3       1 YXS        -0.3832
      9 C1'        22.5420   24.3670   16.7000 C.3       1 YXS         0.2013
     10 N9         23.4410   23.2670   17.1270 N.pl3     1 YXS        -0.1919
     11 C4         24.5750   23.0170   16.4860 C.ar      1 YXS         0.1613
     12 N3         25.1720   23.5560   15.4100 N.ar      1 YXS        -0.2714
     13 C2         26.3460   23.0460   14.9980 C.ar      1 YXS         0.0533
     14 N1         26.9650   22.0030   15.6090 N.ar      1 YXS        -0.2698
     15 C6         26.4570   21.3950   16.6960 C.ar      1 YXS         0.1298
     16 N6         27.0720   20.3680   17.3170 N.pl3     1 YXS        -0.3152
     17 C5         25.1890   21.8930   17.2150 C.ar      1 YXS         0.1045
     18 N7         24.3640   21.5730   18.2370 N.2       1 YXS        -0.2958
     19 C8         23.2960   22.4180   18.1780 C.2       1 YXS         0.1123
     20 O4'        22.4570   25.4260   17.6880 O.3       1 YXS        -0.3360
     21 C4'        21.0690   25.8010   17.7610 C.3       1 YXS         0.1235
     22 C5'        20.4430   25.3130   19.0670 C.3       1 YXS         0.1131
     23 O5'        20.0670   23.9500   18.8460 O.3       1 YXS        -0.2476
     24 P1         18.7910   23.3000   19.5480 P.3       1 YXS         0.2972
     25 O11        17.6360   24.1870   19.1680 O.co2     1 YXS        -0.6127
     26 O12        18.5350   21.8830   19.1490 O.co2     1 YXS        -0.6127
     27 O6         18.9940   23.4730   21.1320 O.3       1 YXS        -0.1319
     28 P2         18.3460   22.4760   22.1920 P.3       1 YXS         0.2971
     29 O21        18.4820   23.1470   23.5020 O.co2     1 YXS        -0.6127
     30 O22        16.9690   22.1610   21.7460 O.co2     1 YXS        -0.6127
     31 O7         19.1750   21.0770   22.2560 O.3       1 YXS        -0.2496
     32 CPB        20.5600   21.1140   22.5790 C.3       1 YXS         0.0936
     33 CPA        21.2370   19.8500   22.0840 C.3       1 YXS         0.0367
     34 CP9        20.7160   18.6740   22.8890 C.3       1 YXS        -0.0528
     35 CP8        22.7340   20.0080   22.2950 C.3       1 YXS        -0.0528
     36 CP7        20.9570   19.6240   20.5960 C.3       1 YXS         0.1510
     37 OP3        21.2670   20.8300   19.9030 O.3       1 YXS        -0.3708
     38 CP6        21.8120   18.5260   20.0250 C.2       1 YXS         0.2057
     39 OP2        21.6100   17.3490   20.2800 O.2       1 YXS        -0.3942
     40 NP2        22.8020   18.9250   19.2380 N.am      1 YXS        -0.2826
     41 CP5        23.7060   18.0020   18.5930 C.3       1 YXS         0.0477
     42 CP4        24.7750   17.4740   19.5450 C.3       1 YXS         0.0574
     43 CP3        25.6630   16.5500   18.7550 C.2       1 YXS         0.1779
     44 OP1        25.1610   15.6410   18.1360 O.2       1 YXS        -0.3970
     45 NP1        26.9500   16.8280   18.7300 N.am      1 YXS        -0.2860
     46 CP2        27.8890   16.1620   17.8800 C.3       1 YXS         0.0422
     47 CP1        28.5010   17.1970   16.9510 C.3       1 YXS         0.0336
     48 S          29.5380   16.4530   15.7390 S.3       1 YXS        -0.0464
     49 CS1        30.8710   15.8270   16.5800 C.2       1 YXS         0.1849
     50 OS1        31.2190   16.2360   17.6860 O.2       1 YXS        -0.3772
     51 CS2        31.6370   14.7700   15.9090 C.3       1 YXS         0.1220
     52 CS3        31.1030   14.7010   14.5000 C.3       1 YXS        -0.0286
     53 SS4        31.2370   13.2920   16.5150 S.o2      1 YXS        -0.1715
     54 O56        31.9090   12.3580   15.6460 O.co2     1 YXS        -0.4820
     55 OS5        31.7030   13.2050   17.8790 O.co2     1 YXS        -0.4820
     56 OS4        29.7840   13.1980   16.4200 O.co2     1 YXS        -0.4820
     57 H1         19.3159   24.8826   16.8587 H         1 YXS         0.0704
     58 H2         20.8826   23.0551   17.2045 H         1 YXS         0.0680
     59 H3         21.3117   23.7822   14.4682 H         1 YXS         0.2101
     60 H4         22.9342   24.7954   15.7658 H         1 YXS         0.0996
     61 H5         26.8235   23.4909   14.1325 H         1 YXS         0.0996
     62 H6         26.6415   19.9358   18.1469 H         1 YXS         0.1820
     63 H7         27.9722   20.0158   16.9614 H         1 YXS         0.1820
     64 H8         22.4540   22.4134   18.8686 H         1 YXS         0.1349
     65 H9         20.9571   26.8912   17.6670 H         1 YXS         0.0654
     66 H10        19.5577   25.9172   19.3144 H         1 YXS         0.0648
     67 H11        21.1728   25.3787   19.8874 H         1 YXS         0.0648
     68 H12        20.6787   21.1885   23.6700 H         1 YXS         0.0628
     69 H13        21.0237   21.9885   22.0991 H         1 YXS         0.0628
     70 H14        21.1986   17.7488   22.5409 H         1 YXS         0.0238
     71 H15        19.6272   18.5921   22.7558 H         1 YXS         0.0238
     72 H16        20.9446   18.8285   23.9538 H         1 YXS         0.0238
     73 H17        23.0990   20.8629   21.7068 H         1 YXS         0.0238
     74 H18        23.2489   19.0922   21.9692 H         1 YXS         0.0238
     75 H19        22.9375   20.1834   23.3617 H         1 YXS         0.0238
     76 H20        19.8958   19.3693   20.4584 H         1 YXS         0.0844
     77 H21        20.7238   21.5343   20.2368 H         1 YXS         0.2133
     78 H22        22.9276   19.9052   19.0850 H         1 YXS         0.1853
     79 H23        24.2011   18.5182   17.7573 H         1 YXS         0.0545
     80 H24        23.1258   17.1511   18.2065 H         1 YXS         0.0545
     81 H25        24.3032   16.9252   20.3734 H         1 YXS         0.0522
     82 H26        25.3657   18.3098   19.9482 H         1 YXS         0.0522
     83 H27        27.2901   17.5445   19.3390 H         1 YXS         0.1851
     84 H28        27.3749   15.3890   17.2900 H         1 YXS         0.0529
     85 H29        28.6772   15.6950   18.4888 H         1 YXS         0.0529
     86 H30        29.0990   17.9018   17.5473 H         1 YXS         0.0424
     87 H31        27.6921   17.7416   16.4420 H         1 YXS         0.0424
     88 H32        32.7192   14.9616   15.9552 H         1 YXS         0.0744
     89 H33        31.3128   15.6483   13.9816 H         1 YXS         0.0272
     90 H34        30.0166   14.5309   14.5275 H         1 YXS         0.0272
     91 H35        31.5903   13.8737   13.9633 H         1 YXS         0.0272
@<TRIPOS>BOND
     1    2    1 ar 
     2    2    3 ar 
     3    2    4 ar 
     4    5    2 1  
     5    6    5 1  
     6    6    7 1  
     7   21    6 1  
     8    7    8 1  
     9    9    7 1  
    10    9   10 1  
    11   20    9 1  
    12   10   11 1  
    13   10   19 1  
    14   11   12 ar 
    15   11   17 ar 
    16   12   13 ar 
    17   13   14 ar 
    18   15   14 ar 
    19   15   16 1  
    20   17   15 ar 
    21   18   17 1  
    22   19   18 2  
    23   21   20 1  
    24   22   21 1  
    25   23   22 1  
    26   24   23 1  
    27   24   25 ar 
    28   24   26 ar 
    29   27   24 1  
    30   28   27 1  
    31   28   29 ar 
    32   28   30 ar 
    33   31   28 1  
    34   32   31 1  
    35   33   32 1  
    36   33   34 1  
    37   33   35 1  
    38   36   33 1  
    39   36   37 1  
    40   38   36 1  
    41   38   39 2  
    42   40   38 am 
    43   41   40 1  
    44   42   41 1  
    45   43   42 1  
    46   43   44 2  
    47   45   43 am 
    48   46   45 1  
    49   47   46 1  
    50   48   47 1  
    51   49   48 1  
    52   49   50 2  
    53   51   49 1  
    54   51   52 1  
    55   53   51 1  
    56   53   54 ar 
    57   53   55 ar 
    58   56   53 ar 
    59    6   57 1  
    60    7   58 1  
    61    8   59 1  
    62    9   60 1  
    63   13   61 1  
    64   16   62 1  
    65   16   63 1  
    66   19   64 1  
    67   21   65 1  
    68   22   66 1  
    69   22   67 1  
    70   32   68 1  
    71   32   69 1  
    72   34   70 1  
    73   34   71 1  
    74   34   72 1  
    75   35   73 1  
    76   35   74 1  
    77   35   75 1  
    78   36   76 1  
    79   37   77 1  
    80   40   78 1  
    81   41   79 1  
    82   41   80 1  
    83   42   81 1  
    84   42   82 1  
    85   45   83 1  
    86   46   84 1  
    87   46   85 1  
    88   47   86 1  
    89   47   87 1  
    90   51   88 1  
    91   52   89 1  
    92   52   90 1  
    93   52   91 1  
@<TRIPOS>SUBSTRUCTURE
     1 YXS         1

