### 
### Created by X-TOOL on Mon Sep 10 21:13:30 2018
### 

@<TRIPOS>MOLECULE
5kly_ligand
   57    61     1     0     0
SMALL
GAST_HUCK


@<TRIPOS>ATOM
      1 C1        -31.5690    6.7190  -23.2940 C.3       1 6UR         0.0288
      2 C2        -26.3500    5.1030  -32.5660 C.ar      1 6UR         0.0533
      3 C3        -32.1270    7.9680  -23.9680 C.3       1 6UR        -0.0195
      4 C4        -28.3540    5.2450  -31.4060 C.ar      1 6UR         0.1613
      5 C5        -29.0970    4.9310  -32.6240 C.ar      1 6UR         0.1045
      6 C6        -28.3010    4.7130  -33.8370 C.ar      1 6UR         0.1298
      7 C7        -33.5740    8.2410  -23.6250 C.2       1 6UR        -0.0447
      8 N1        -26.9580    4.8140  -33.7340 N.ar      1 6UR        -0.2698
      9 N3        -27.0020    5.3250  -31.4100 N.ar      1 6UR        -0.2714
     10 C8        -30.5020    5.2080  -30.9830 C.2       1 6UR         0.1123
     11 C1'       -28.9610    5.7210  -29.0710 C.3       1 6UR         0.2010
     12 C2'       -29.8330    6.8160  -28.4870 C.3       1 6UR         0.1385
     13 C3'       -29.7430    6.5140  -26.9920 C.3       1 6UR         0.1150
     14 C4'       -29.3410    5.0320  -26.9510 C.3       1 6UR         0.1191
     15 C5'       -30.3300    4.1520  -26.2150 C.3       1 6UR         0.1127
     16 O3P       -32.1150    2.8940  -24.2100 O.co2     1 6UR        -0.6076
     17 P         -31.2540    4.0420  -23.7380 P.3       1 6UR         0.2015
     18 N1P       -32.2310    5.4810  -23.6840 N.am      1 6UR        -0.2754
     19 O2P       -30.5110    3.8820  -22.4510 O.co2     1 6UR        -0.6076
     20 O5'       -30.1260    4.3750  -24.8270 O.3       1 6UR        -0.2586
     21 O3'       -28.7710    7.3250  -26.3010 O.3       1 6UR        -0.3864
     22 O2'       -29.3840    8.1220  -28.8730 O.3       1 6UR        -0.3836
     23 O4'       -29.2960    4.5810  -28.2990 O.3       1 6UR        -0.3364
     24 N9        -29.2750    5.4090  -30.4700 N.pl3     1 6UR        -0.1919
     25 N7        -30.4070    4.9290  -32.3060 N.2       1 6UR        -0.2958
     26 N6        -28.9110    4.4190  -35.0140 N.pl3     1 6UR        -0.3152
     27 C9        -34.1280    8.6740  -22.3220 C.ar      1 6UR        -0.0215
     28 C10       -35.5820    8.8210  -22.5250 C.ar      1 6UR         0.0603
     29 N11       -35.8210    8.5120  -23.8130 N.pl3     1 6UR        -0.2891
     30 C12       -34.6750    8.1790  -24.4750 C.2       1 6UR         0.0165
     31 C13       -33.5440    8.9090  -21.0870 C.ar      1 6UR        -0.0747
     32 C14       -34.3760    9.3070  -20.0380 C.ar      1 6UR        -0.0792
     33 C15       -35.7560    9.4510  -20.2170 C.ar      1 6UR        -0.0768
     34 C16       -36.3680    9.2120  -21.4450 C.ar      1 6UR        -0.0443
     35 H1        -31.6750    6.8383  -22.2056 H         1 6UR         0.0489
     36 H2        -30.5029    6.6355  -23.5517 H         1 6UR         0.0489
     37 H3        -25.2675    5.1602  -32.5575 H         1 6UR         0.0996
     38 H4        -32.0450    7.8421  -25.0577 H         1 6UR         0.0365
     39 H5        -31.5250    8.8328  -23.6524 H         1 6UR         0.0365
     40 H6        -31.4325    5.2614  -30.4197 H         1 6UR         0.1349
     41 H7        -27.8966    5.9819  -28.9760 H         1 6UR         0.0996
     42 H8        -30.8727    6.7032  -28.8281 H         1 6UR         0.0676
     43 H9        -30.7245    6.6620  -26.5180 H         1 6UR         0.0648
     44 H10       -28.3522    4.9373  -26.4785 H         1 6UR         0.0651
     45 H11       -30.1502    3.0946  -26.4588 H         1 6UR         0.0650
     46 H12       -31.3588    4.4230  -26.4946 H         1 6UR         0.0650
     47 H13       -33.2047    5.4592  -23.9108 H         1 6UR         0.1653
     48 H14       -27.9231    7.2246  -26.7174 H         1 6UR         0.2100
     49 H15       -28.4718    8.2269  -28.6293 H         1 6UR         0.2101
     50 H16       -28.3471    4.2669  -35.8624 H         1 6UR         0.1820
     51 H17       -29.9376    4.3480  -35.0584 H         1 6UR         0.1820
     52 H18       -36.7553    8.5252  -24.2464 H         1 6UR         0.2216
     53 H19       -34.6280    7.9019  -25.5271 H         1 6UR         0.0795
     54 H20       -32.4768    8.7879  -20.9402 H         1 6UR         0.0540
     55 H21       -33.9433    9.5085  -19.0647 H         1 6UR         0.0510
     56 H22       -36.3667    9.7575  -19.3755 H         1 6UR         0.0530
     57 H23       -37.4398    9.3287  -21.5579 H         1 6UR         0.0541
@<TRIPOS>BOND
     1    1    3 1  
     2   18    1 1  
     3    2    8 ar 
     4    9    2 ar 
     5    3    7 1  
     6    4    5 ar 
     7    4    9 ar 
     8   24    4 1  
     9    5    6 ar 
    10   25    5 1  
    11    6    8 ar 
    12    6   26 1  
    13    7   27 1  
    14    7   30 2  
    15   24   10 1  
    16   10   25 2  
    17   11   12 1  
    18   23   11 1  
    19   11   24 1  
    20   13   12 1  
    21   12   22 1  
    22   14   13 1  
    23   13   21 1  
    24   15   14 1  
    25   14   23 1  
    26   20   15 1  
    27   17   16 ar 
    28   17   18 am 
    29   17   19 ar 
    30   17   20 1  
    31   27   28 ar 
    32   27   31 ar 
    33   28   29 1  
    34   28   34 ar 
    35   29   30 1  
    36   31   32 ar 
    37   32   33 ar 
    38   33   34 ar 
    39    1   35 1  
    40    1   36 1  
    41    2   37 1  
    42    3   38 1  
    43    3   39 1  
    44   10   40 1  
    45   11   41 1  
    46   12   42 1  
    47   13   43 1  
    48   14   44 1  
    49   15   45 1  
    50   15   46 1  
    51   18   47 1  
    52   21   48 1  
    53   22   49 1  
    54   26   50 1  
    55   26   51 1  
    56   29   52 1  
    57   30   53 1  
    58   31   54 1  
    59   32   55 1  
    60   33   56 1  
    61   34   57 1  
@<TRIPOS>SUBSTRUCTURE
     1 6UR         1

