### 
### Created by X-TOOL on Mon Aug  2 16:10:55 2021
### 

@<TRIPOS>MOLECULE
6jfk_ligand
   41    43     1     0     0
SMALL
GAST_HUCK


@<TRIPOS>ATOM
      1 PB        -30.5550   15.4140    8.9340 P.3       1 GDP         0.2069
      2 O1B       -29.5260   14.8340    8.0020 O.co2     1 GDP        -0.5891
      3 O2B       -30.2330   15.1160   10.4060 O.co2     1 GDP        -0.5891
      4 O3B       -30.6970   16.9040    8.7370 O.co2     1 GDP        -0.5891
      5 O3A       -31.9260   14.6590    8.5260 O.3       1 GDP        -0.1548
      6 PA        -32.9830   13.8870    9.4610 P.3       1 GDP         0.3276
      7 O1A       -32.4750   12.5830   10.0190 O.co2     1 GDP        -0.5556
      8 O2A       -33.5980   14.8290   10.4400 O.co2     1 GDP        -0.5556
      9 O5'       -34.1010   13.5260    8.3520 O.3       1 GDP        -0.2436
     10 C5'       -34.7700   14.5750    7.6250 C.3       1 GDP         0.1132
     11 C4'       -36.1280   14.0900    7.1250 C.3       1 GDP         0.1190
     12 O4'       -35.8810   12.9920    6.2530 O.3       1 GDP        -0.3347
     13 C3'       -36.9650   13.5610    8.2670 C.3       1 GDP         0.1151
     14 O3'       -38.3450   13.8570    8.0380 O.3       1 GDP        -0.3864
     15 C2'       -36.7350   12.0620    8.2250 C.3       1 GDP         0.1407
     16 O2'       -37.8120   11.3450    8.8270 O.3       1 GDP        -0.3835
     17 C1'       -36.5460   11.8230    6.7400 C.3       1 GDP         0.2218
     18 N9        -35.6680   10.6590    6.4860 N.pl3     1 GDP        -0.0954
     19 C8        -34.5130   10.3530    7.1140 C.2       1 GDP         0.1855
     20 N7        -33.9680    9.2190    6.6090 N.2       1 GDP        -0.1929
     21 C5        -34.7920    8.7930    5.6370 C.2       1 GDP         0.2558
     22 C6        -34.8390    7.6570    4.7010 C.2       1 GDP         0.2628
     23 O6        -33.9530    6.7810    4.7030 O.2       1 GDP        -0.3594
     24 N1        -35.8840    7.5910    3.8460 N.am      1 GDP        -0.2478
     25 C2        -36.8730    8.4990    3.8120 C.cat     1 GDP         0.2041
     26 N2        -37.8890    8.3360    2.9110 N.pl3     1 GDP        -0.3327
     27 N3        -36.9010    9.5570    4.6530 N.pl3     1 GDP        -0.1901
     28 C4        -35.9050    9.7460    5.5570 C.2       1 GDP         0.3268
     29 H1        -34.1516   14.8719    6.7651 H         1 GDP         0.0648
     30 H2        -34.9155   15.4404    8.2883 H         1 GDP         0.0648
     31 H3        -36.6575   14.9015    6.6043 H         1 GDP         0.0651
     32 H4        -36.6429   13.9865    9.2289 H         1 GDP         0.0648
     33 H5        -38.6253   13.4476    7.2279 H         1 GDP         0.2100
     34 H6        -35.8129   11.7986    8.7638 H         1 GDP         0.0677
     35 H7        -37.8983   11.6092    9.7354 H         1 GDP         0.2101
     36 H8        -37.5172   11.6789    6.2440 H         1 GDP         0.1021
     37 H9        -34.0762   10.9401    7.9205 H         1 GDP         0.1823
     38 H10       -35.9227    6.8250    3.2044 H         1 GDP         0.1819
     39 H11       -38.6562    9.0221    2.8702 H         1 GDP         0.1774
     40 H12       -37.8870    7.5272    2.2733 H         1 GDP         0.1774
     41 H13       -37.6837   10.2250    4.6079 H         1 GDP         0.2519
@<TRIPOS>BOND
     1    1    2 ar 
     2    1    3 ar 
     3    1    4 ar 
     4    1    5 1  
     5    5    6 1  
     6    6    7 ar 
     7    6    8 ar 
     8    6    9 1  
     9    9   10 1  
    10   10   11 1  
    11   11   12 1  
    12   11   13 1  
    13   12   17 1  
    14   13   14 1  
    15   13   15 1  
    16   15   16 1  
    17   15   17 1  
    18   17   18 1  
    19   18   19 1  
    20   18   28 1  
    21   19   20 2  
    22   20   21 1  
    23   21   22 1  
    24   21   28 2  
    25   22   23 2  
    26   22   24 am 
    27   24   25 ar 
    28   25   26 ar 
    29   25   27 ar 
    30   27   28 1  
    31   10   29 1  
    32   10   30 1  
    33   11   31 1  
    34   13   32 1  
    35   14   33 1  
    36   15   34 1  
    37   16   35 1  
    38   17   36 1  
    39   19   37 1  
    40   24   38 1  
    41   26   39 1  
    42   26   40 1  
    43   27   41 1  
@<TRIPOS>SUBSTRUCTURE
     1 GDP         1

